%chk=D:\homework2\Problem2\2.chk
# rhf/6-311+g(d) opt

Title Card Required

0 1
 C                 -1.01265824   -2.46835439    0.00000000
 H                 -0.65600381   -3.47716440    0.00000000
 H                 -0.65598540   -1.96395620   -0.87365150
 H                 -2.08265824   -2.46834121    0.00000000
 O                 -0.53598332   -1.79425214    1.16759033
 H                 -0.85432268   -0.88857016    1.16713827



